
#======================================================================
# CRYSTAL DATA
#----------------------------------------------------------------------
data_VESTA_phase_1

_chemical_name_common                  'cif'
_cell_length_a                         8.843500
_cell_length_b                         9.419400
_cell_length_c                         8.559200
_cell_angle_alpha                      90.000000
_cell_angle_beta                       90.000000
_cell_angle_gamma                      90.000000
_cell_volume                           712.985382
_space_group_name_H-M_alt              'P 1'
_space_group_IT_number                 1

loop_
_space_group_symop_operation_xyz
   'x, y, z'

loop_
   _atom_site_label
   _atom_site_occupancy
   _atom_site_fract_x
   _atom_site_fract_y
   _atom_site_fract_z
   _atom_site_adp_type
   _atom_site_U_iso_or_equiv
   _atom_site_type_symbol
   Mn         1.0     0.120300     0.006500     0.083330    Uiso  ? Mn
   Mn         1.0     0.337140     0.256500     0.250000    Uiso  ? Mn
   Mn         1.0     0.620300     0.245380     0.083330    Uiso  ? Mn
   Mn         1.0     0.837140     0.495380     0.250000    Uiso  ? Mn
   Mn         1.0     0.120300     0.506500     0.083330    Uiso  ? Mn
   Mn         1.0     0.337140     0.756500     0.250000    Uiso  ? Mn
   Mn         1.0     0.620300     0.745380     0.083330    Uiso  ? Mn
   Mn         1.0     0.837140     0.995380     0.250000    Uiso  ? Mn
   Mn         1.0     0.120300     0.006500     0.416660    Uiso  ? Mn
   Mn         1.0     0.337140     0.256500     0.583330    Uiso  ? Mn
   Mn         1.0     0.620300     0.245380     0.416660    Uiso  ? Mn
   Mn         1.0     0.837140     0.495380     0.583330    Uiso  ? Mn
   Mn         1.0     0.120300     0.506500     0.416660    Uiso  ? Mn
   Mn         1.0     0.337140     0.756500     0.583330    Uiso  ? Mn
   Mn         1.0     0.620300     0.745380     0.416660    Uiso  ? Mn
   Mn         1.0     0.837140     0.995380     0.583330    Uiso  ? Mn
   Mn         1.0     0.120300     0.006500     0.750000    Uiso  ? Mn
   Mn         1.0     0.337140     0.256500     0.916660    Uiso  ? Mn
   Mn         1.0     0.620300     0.245380     0.750000    Uiso  ? Mn
   Mn         1.0     0.837140     0.495380     0.916660    Uiso  ? Mn
   Mn         1.0     0.120300     0.506500     0.750000    Uiso  ? Mn
   Mn         1.0     0.337140     0.756500     0.916660    Uiso  ? Mn
   Mn         1.0     0.620300     0.745380     0.750000    Uiso  ? Mn
   Mn         1.0     0.837140     0.995380     0.916660    Uiso  ? Mn
   O          1.0     0.025940     0.101280     0.250000    Uiso  ? O
   O          1.0     0.431500     0.351280     0.083330    Uiso  ? O
   O          1.0     0.525940     0.150600     0.250000    Uiso  ? O
   O          1.0     0.931500     0.400600     0.083330    Uiso  ? O
   O          1.0     0.252650     0.155310     0.083330    Uiso  ? O
   O          1.0     0.204790     0.405310     0.250000    Uiso  ? O
   O          1.0     0.752650     0.096570     0.083330    Uiso  ? O
   O          1.0     0.704790     0.346570     0.250000    Uiso  ? O
   O          1.0     0.025940     0.601280     0.250000    Uiso  ? O
   O          1.0     0.431500     0.851280     0.083330    Uiso  ? O
   O          1.0     0.525940     0.650600     0.250000    Uiso  ? O
   O          1.0     0.931500     0.900600     0.083330    Uiso  ? O
   O          1.0     0.252650     0.655310     0.083330    Uiso  ? O
   O          1.0     0.204790     0.905310     0.250000    Uiso  ? O
   O          1.0     0.752650     0.596570     0.083330    Uiso  ? O
   O          1.0     0.704790     0.846570     0.250000    Uiso  ? O
   O          1.0     0.025940     0.101280     0.583330    Uiso  ? O
   O          1.0     0.431500     0.351280     0.416660    Uiso  ? O
   O          1.0     0.525940     0.150600     0.583330    Uiso  ? O
   O          1.0     0.931500     0.400600     0.416660    Uiso  ? O
   O          1.0     0.252650     0.155310     0.416660    Uiso  ? O
   O          1.0     0.204790     0.405310     0.583330    Uiso  ? O
   O          1.0     0.752650     0.096570     0.416660    Uiso  ? O
   O          1.0     0.704790     0.346570     0.583330    Uiso  ? O
   O          1.0     0.025940     0.601280     0.583330    Uiso  ? O
   O          1.0     0.431500     0.851280     0.416660    Uiso  ? O
   O          1.0     0.525940     0.650600     0.583330    Uiso  ? O
   O          1.0     0.931500     0.900600     0.416660    Uiso  ? O
   O          1.0     0.252650     0.655310     0.416660    Uiso  ? O
   O          1.0     0.204790     0.905310     0.583330    Uiso  ? O
   O          1.0     0.752650     0.596570     0.416660    Uiso  ? O
   O          1.0     0.704790     0.846570     0.583330    Uiso  ? O
   O          1.0     0.025940     0.101280     0.916660    Uiso  ? O
   O          1.0     0.431500     0.351280     0.750000    Uiso  ? O
   O          1.0     0.525940     0.150600     0.916660    Uiso  ? O
   O          1.0     0.931500     0.400600     0.750000    Uiso  ? O
   O          1.0     0.252650     0.155310     0.750000    Uiso  ? O
   O          1.0     0.204790     0.405310     0.916660    Uiso  ? O
   O          1.0     0.752650     0.096570     0.750000    Uiso  ? O
   O          1.0     0.704790     0.346570     0.916660    Uiso  ? O
   O          1.0     0.025940     0.601280     0.916660    Uiso  ? O
   O          1.0     0.431500     0.851280     0.750000    Uiso  ? O
   O          1.0     0.525940     0.650600     0.916660    Uiso  ? O
   O          1.0     0.931500     0.900600     0.750000    Uiso  ? O
   O          1.0     0.252650     0.655310     0.750000    Uiso  ? O
   O          1.0     0.204790     0.905310     0.916660    Uiso  ? O
   O          1.0     0.752650     0.596570     0.750000    Uiso  ? O
   O          1.0     0.704790     0.846570     0.916660    Uiso  ? O
