
#======================================================================
# CRYSTAL DATA
#----------------------------------------------------------------------
data_VESTA_phase_1

_chemical_name_common                  'cif'
_cell_length_a                         9.891300
_cell_length_b                         9.868200
_cell_length_c                         8.932200
_cell_angle_alpha                      90.000000
_cell_angle_beta                       90.000000
_cell_angle_gamma                      90.000000
_cell_volume                           871.866114
_space_group_name_H-M_alt              'P 1'
_space_group_IT_number                 1

loop_
_space_group_symop_operation_xyz
   'x, y, z'

loop_
   _atom_site_label
   _atom_site_occupancy
   _atom_site_fract_x
   _atom_site_fract_y
   _atom_site_fract_z
   _atom_site_adp_type
   _atom_site_U_iso_or_equiv
   _atom_site_type_symbol
   Tc         1.0     0.845980     0.491380     0.916680    Uiso  ? Tc
   Tc         1.0     0.618400     0.741380     0.083350    Uiso  ? Tc
   Tc         1.0     0.118400     0.530990     0.750020    Uiso  ? Tc
   Tc         1.0     0.845980     0.991380     0.583350    Uiso  ? Tc
   Tc         1.0     0.345980     0.280990     0.250020    Uiso  ? Tc
   Tc         1.0     0.345980     0.780990     0.583350    Uiso  ? Tc
   Tc         1.0     0.118400     0.030990     0.416680    Uiso  ? Tc
   Tc         1.0     0.618400     0.241380     0.083350    Uiso  ? Tc
   Tc         1.0     0.618400     0.741380     0.416680    Uiso  ? Tc
   Tc         1.0     0.845980     0.491380     0.250020    Uiso  ? Tc
   Tc         1.0     0.345980     0.780990     0.916680    Uiso  ? Tc
   Tc         1.0     0.118400     0.530990     0.416680    Uiso  ? Tc
   Tc         1.0     0.618400     0.241380     0.750020    Uiso  ? Tc
   Tc         1.0     0.618400     0.741380     0.750020    Uiso  ? Tc
   Tc         1.0     0.618400     0.241380     0.416680    Uiso  ? Tc
   Tc         1.0     0.345980     0.780990     0.250020    Uiso  ? Tc
   Tc         1.0     0.118400     0.530990     0.083350    Uiso  ? Tc
   Tc         1.0     0.118400     0.030990     0.083350    Uiso  ? Tc
   Tc         1.0     0.845980     0.991380     0.250020    Uiso  ? Tc
   Tc         1.0     0.845980     0.991380     0.916680    Uiso  ? Tc
   Tc         1.0     0.345980     0.280990     0.583350    Uiso  ? Tc
   Tc         1.0     0.845980     0.491380     0.583350    Uiso  ? Tc
   Tc         1.0     0.345980     0.280990     0.916680    Uiso  ? Tc
   Tc         1.0     0.118400     0.030990     0.750020    Uiso  ? Tc
   Li         1.0     0.573850     0.478430     0.250020    Uiso  ? Li
   Li         1.0     0.890530     0.228430     0.416680    Uiso  ? Li
   Li         1.0     0.390530     0.043940     0.750020    Uiso  ? Li
   Li         1.0     0.890530     0.728430     0.416680    Uiso  ? Li
   Li         1.0     0.073850     0.793940     0.250020    Uiso  ? Li
   Li         1.0     0.073850     0.293940     0.250020    Uiso  ? Li
   Li         1.0     0.890530     0.228430     0.083350    Uiso  ? Li
   Li         1.0     0.390530     0.543940     0.750020    Uiso  ? Li
   Li         1.0     0.890530     0.228430     0.750020    Uiso  ? Li
   Li         1.0     0.073850     0.293940     0.583350    Uiso  ? Li
   Li         1.0     0.890530     0.728430     0.750020    Uiso  ? Li
   Li         1.0     0.573850     0.478430     0.916680    Uiso  ? Li
   Li         1.0     0.073850     0.793940     0.916680    Uiso  ? Li
   Li         1.0     0.390530     0.043940     0.416680    Uiso  ? Li
   Li         1.0     0.390530     0.543940     0.083350    Uiso  ? Li
   Li         1.0     0.573850     0.478430     0.583350    Uiso  ? Li
   Li         1.0     0.890530     0.728430     0.083350    Uiso  ? Li
   Li         1.0     0.390530     0.543940     0.416680    Uiso  ? Li
   Li         1.0     0.073850     0.793940     0.583350    Uiso  ? Li
   Li         1.0     0.573850     0.978430     0.916680    Uiso  ? Li
   Li         1.0     0.390530     0.043940     0.083350    Uiso  ? Li
   Li         1.0     0.573850     0.978430     0.250020    Uiso  ? Li
   Li         1.0     0.073850     0.293940     0.916680    Uiso  ? Li
   Li         1.0     0.573850     0.978430     0.583350    Uiso  ? Li
   O          1.0     0.011490     0.120810     0.250020    Uiso  ? O
   O          1.0     0.452890     0.370810     0.083350    Uiso  ? O
   O          1.0     0.511490     0.151560     0.250020    Uiso  ? O
   O          1.0     0.952890     0.401560     0.083350    Uiso  ? O
   O          1.0     0.258480     0.178330     0.083350    Uiso  ? O
   O          1.0     0.205900     0.428330     0.250020    Uiso  ? O
   O          1.0     0.758480     0.094040     0.083350    Uiso  ? O
   O          1.0     0.705900     0.344040     0.250020    Uiso  ? O
   O          1.0     0.011490     0.620810     0.250020    Uiso  ? O
   O          1.0     0.452890     0.870810     0.083350    Uiso  ? O
   O          1.0     0.511490     0.651560     0.250020    Uiso  ? O
   O          1.0     0.952890     0.901560     0.083350    Uiso  ? O
   O          1.0     0.258480     0.678330     0.083350    Uiso  ? O
   O          1.0     0.205900     0.928330     0.250020    Uiso  ? O
   O          1.0     0.758480     0.594040     0.083350    Uiso  ? O
   O          1.0     0.705900     0.844040     0.250020    Uiso  ? O
   O          1.0     0.011490     0.120810     0.583350    Uiso  ? O
   O          1.0     0.452890     0.370810     0.416680    Uiso  ? O
   O          1.0     0.511490     0.151560     0.583350    Uiso  ? O
   O          1.0     0.952890     0.401560     0.416680    Uiso  ? O
   O          1.0     0.258480     0.178330     0.416680    Uiso  ? O
   O          1.0     0.205900     0.428330     0.583350    Uiso  ? O
   O          1.0     0.758480     0.094040     0.416680    Uiso  ? O
   O          1.0     0.705900     0.344040     0.583350    Uiso  ? O
   O          1.0     0.011490     0.620810     0.583350    Uiso  ? O
   O          1.0     0.452890     0.870810     0.416680    Uiso  ? O
   O          1.0     0.511490     0.651560     0.583350    Uiso  ? O
   O          1.0     0.952890     0.901560     0.416680    Uiso  ? O
   O          1.0     0.258480     0.678330     0.416680    Uiso  ? O
   O          1.0     0.205900     0.928330     0.583350    Uiso  ? O
   O          1.0     0.758480     0.594040     0.416680    Uiso  ? O
   O          1.0     0.705900     0.844040     0.583350    Uiso  ? O
   O          1.0     0.011490     0.120810     0.916680    Uiso  ? O
   O          1.0     0.452890     0.370810     0.750020    Uiso  ? O
   O          1.0     0.511490     0.151560     0.916680    Uiso  ? O
   O          1.0     0.952890     0.401560     0.750020    Uiso  ? O
   O          1.0     0.258480     0.178330     0.750020    Uiso  ? O
   O          1.0     0.205900     0.428330     0.916680    Uiso  ? O
   O          1.0     0.758480     0.094040     0.750020    Uiso  ? O
   O          1.0     0.705900     0.344040     0.916680    Uiso  ? O
   O          1.0     0.011490     0.620810     0.916680    Uiso  ? O
   O          1.0     0.452890     0.870810     0.750020    Uiso  ? O
   O          1.0     0.511490     0.651560     0.916680    Uiso  ? O
   O          1.0     0.952890     0.901560     0.750020    Uiso  ? O
   O          1.0     0.258480     0.678330     0.750020    Uiso  ? O
   O          1.0     0.205900     0.928330     0.916680    Uiso  ? O
   O          1.0     0.758480     0.594040     0.750020    Uiso  ? O
   O          1.0     0.705900     0.844040     0.916680    Uiso  ? O
